<?xml version="1.0" encoding="UTF-8"?>

<!-- generated on 2026-04-22T11:17:13.147651+05:30 by Eclipse SUMO netconvert 1.26.0
<netconvertConfiguration xmlns:xsi="http://www.w3.org/2001/XMLSchema-instance" xsi:noNamespaceSchemaLocation="http://sumo.dlr.de/xsd/netconvertConfiguration.xsd">

    <input>
        <node-files value="network/intersection.nod.xml"/>
        <edge-files value="network/intersection.edg.xml"/>
        <connection-files value="network/intersection.con.xml"/>
    </input>

    <output>
        <output-file value="network/intersection.net.xml"/>
    </output>

</netconvertConfiguration>
-->

<net version="1.20" junctionCornerDetail="5" limitTurnSpeed="5.50" xmlns:xsi="http://www.w3.org/2001/XMLSchema-instance" xsi:noNamespaceSchemaLocation="http://sumo.dlr.de/xsd/net_file.xsd">

    <location netOffset="200.00,200.00" convBoundary="0.00,0.00,400.00,400.00" origBoundary="-200.00,-200.00,200.00,200.00" projParameter="!"/>

    <edge id=":center_0" function="internal">
        <lane id=":center_0_0" index="0" speed="13.89" length="20.80" shape="195.20,210.40 195.20,189.60"/>
    </edge>
    <edge id=":center_1" function="internal">
        <lane id=":center_1_0" index="0" speed="10.10" length="5.43" shape="195.20,210.40 196.53,205.14"/>
    </edge>
    <edge id=":center_2" function="internal">
        <lane id=":center_2_0" index="0" speed="7.33" length="2.51" shape="198.40,210.40 197.85,207.95"/>
    </edge>
    <edge id=":center_12" function="internal">
        <lane id=":center_12_0" index="0" speed="10.10" length="17.79" shape="196.53,205.14 196.57,205.00 200.11,200.11 205.00,196.57 210.40,195.20"/>
    </edge>
    <edge id=":center_13" function="internal">
        <lane id=":center_13_0" index="0" speed="7.33" length="9.21" shape="197.85,207.95 196.20,206.20 193.45,205.15 189.60,204.80"/>
    </edge>
    <edge id=":center_3" function="internal">
        <lane id=":center_3_0" index="0" speed="6.51" length="9.03" shape="210.40,204.80 207.95,205.15 206.20,206.20 205.15,207.95 204.80,210.40"/>
    </edge>
    <edge id=":center_4" function="internal">
        <lane id=":center_4_0" index="0" speed="13.89" length="20.80" shape="210.40,204.80 189.60,204.80"/>
    </edge>
    <edge id=":center_5" function="internal">
        <lane id=":center_5_0" index="0" speed="9.84" length="12.79" shape="210.40,201.60 203.75,200.85 199.00,198.60 198.49,197.93"/>
    </edge>
    <edge id=":center_14" function="internal">
        <lane id=":center_14_0" index="0" speed="9.84" length="9.21" shape="198.49,197.93 196.15,194.85 195.20,189.60"/>
    </edge>
    <edge id=":center_6" function="internal">
        <lane id=":center_6_0" index="0" speed="13.89" length="20.80" shape="204.80,189.60 204.80,210.40"/>
    </edge>
    <edge id=":center_7" function="internal">
        <lane id=":center_7_0" index="0" speed="10.10" length="5.43" shape="204.80,189.60 203.47,194.86"/>
    </edge>
    <edge id=":center_8" function="internal">
        <lane id=":center_8_0" index="0" speed="7.33" length="2.51" shape="201.60,189.60 202.15,192.05"/>
    </edge>
    <edge id=":center_15" function="internal">
        <lane id=":center_15_0" index="0" speed="10.10" length="17.79" shape="203.47,194.86 203.43,195.00 199.89,199.89 195.00,203.43 189.60,204.80"/>
    </edge>
    <edge id=":center_16" function="internal">
        <lane id=":center_16_0" index="0" speed="7.33" length="9.21" shape="202.15,192.05 203.80,193.80 206.55,194.85 210.40,195.20"/>
    </edge>
    <edge id=":center_9" function="internal">
        <lane id=":center_9_0" index="0" speed="6.51" length="9.03" shape="189.60,195.20 192.05,194.85 193.80,193.80 194.85,192.05 195.20,189.60"/>
    </edge>
    <edge id=":center_10" function="internal">
        <lane id=":center_10_0" index="0" speed="13.89" length="20.80" shape="189.60,195.20 210.40,195.20"/>
    </edge>
    <edge id=":center_11" function="internal">
        <lane id=":center_11_0" index="0" speed="9.84" length="12.79" shape="189.60,198.40 196.25,199.15 201.00,201.40 201.51,202.07"/>
    </edge>
    <edge id=":center_17" function="internal">
        <lane id=":center_17_0" index="0" speed="9.84" length="9.21" shape="201.51,202.07 203.85,205.15 204.80,210.40"/>
    </edge>
    <edge id=":east_0" function="internal">
        <lane id=":east_0_0" index="0" speed="3.65" length="4.67" shape="400.00,198.40 401.20,199.20 401.60,200.00 401.20,200.80 400.00,201.60"/>
    </edge>
    <edge id=":north_0" function="internal">
        <lane id=":north_0_0" index="0" speed="3.65" length="4.67" shape="201.60,400.00 200.80,401.20 200.00,401.60 199.20,401.20 198.40,400.00"/>
    </edge>
    <edge id=":south_0" function="internal">
        <lane id=":south_0_0" index="0" speed="3.65" length="4.67" shape="198.40,0.00 199.20,-1.20 200.00,-1.60 200.80,-1.20 201.60,0.00"/>
    </edge>
    <edge id=":west_0" function="internal">
        <lane id=":west_0_0" index="0" speed="3.65" length="4.67" shape="0.00,201.60 -1.20,200.80 -1.60,200.00 -1.20,199.20 0.00,198.40"/>
    </edge>

    <edge id="east_in" from="east" to="center" priority="-1">
        <lane id="east_in_0" index="0" speed="13.89" length="189.60" shape="400.00,204.80 210.40,204.80"/>
        <lane id="east_in_1" index="1" speed="13.89" length="189.60" shape="400.00,201.60 210.40,201.60"/>
    </edge>
    <edge id="east_out" from="center" to="east" priority="-1">
        <lane id="east_out_0" index="0" speed="13.89" length="189.60" shape="210.40,195.20 400.00,195.20"/>
        <lane id="east_out_1" index="1" speed="13.89" length="189.60" shape="210.40,198.40 400.00,198.40"/>
    </edge>
    <edge id="north_in" from="north" to="center" priority="-1">
        <lane id="north_in_0" index="0" speed="13.89" length="189.60" shape="195.20,400.00 195.20,210.40"/>
        <lane id="north_in_1" index="1" speed="13.89" length="189.60" shape="198.40,400.00 198.40,210.40"/>
    </edge>
    <edge id="north_out" from="center" to="north" priority="-1">
        <lane id="north_out_0" index="0" speed="13.89" length="189.60" shape="204.80,210.40 204.80,400.00"/>
        <lane id="north_out_1" index="1" speed="13.89" length="189.60" shape="201.60,210.40 201.60,400.00"/>
    </edge>
    <edge id="south_in" from="south" to="center" priority="-1">
        <lane id="south_in_0" index="0" speed="13.89" length="189.60" shape="204.80,0.00 204.80,189.60"/>
        <lane id="south_in_1" index="1" speed="13.89" length="189.60" shape="201.60,0.00 201.60,189.60"/>
    </edge>
    <edge id="south_out" from="center" to="south" priority="-1">
        <lane id="south_out_0" index="0" speed="13.89" length="189.60" shape="195.20,189.60 195.20,0.00"/>
        <lane id="south_out_1" index="1" speed="13.89" length="189.60" shape="198.40,189.60 198.40,0.00"/>
    </edge>
    <edge id="west_in" from="west" to="center" priority="-1">
        <lane id="west_in_0" index="0" speed="13.89" length="189.60" shape="0.00,195.20 189.60,195.20"/>
        <lane id="west_in_1" index="1" speed="13.89" length="189.60" shape="0.00,198.40 189.60,198.40"/>
    </edge>
    <edge id="west_out" from="center" to="west" priority="-1">
        <lane id="west_out_0" index="0" speed="13.89" length="189.60" shape="189.60,204.80 0.00,204.80"/>
        <lane id="west_out_1" index="1" speed="13.89" length="189.60" shape="189.60,201.60 0.00,201.60"/>
    </edge>

    <tlLogic id="center" type="static" programID="0" offset="0">
        <phase duration="38" state="GggrrrGggrrr"/>
        <phase duration="3"  state="yyyrrryyyrrr"/>
        <phase duration="37" state="rrrGGgrrrGGg"/>
        <phase duration="3"  state="rrryygrrryyg"/>
        <phase duration="6"  state="rrrrrGrrrrrG"/>
        <phase duration="3"  state="rrrrryrrrrry"/>
    </tlLogic>

    <junction id="center" type="traffic_light" x="200.00" y="200.00" incLanes="north_in_0 north_in_1 east_in_0 east_in_1 south_in_0 south_in_1 west_in_0 west_in_1" intLanes=":center_0_0 :center_12_0 :center_13_0 :center_3_0 :center_4_0 :center_14_0 :center_6_0 :center_15_0 :center_16_0 :center_9_0 :center_10_0 :center_17_0" shape="193.60,210.40 206.40,210.40 206.84,208.18 207.40,207.40 208.18,206.84 209.18,206.51 210.40,206.40 210.40,193.60 208.18,193.16 207.40,192.60 206.84,191.82 206.51,190.82 206.40,189.60 193.60,189.60 193.16,191.82 192.60,192.60 191.82,193.16 190.82,193.49 189.60,193.60 189.60,206.40 191.82,206.84 192.60,207.40 193.16,208.18 193.49,209.18">
        <request index="0"  response="100000100000" foes="111010110100" cont="0"/>
        <request index="1"  response="100111100000" foes="110111110100" cont="1"/>
        <request index="2"  response="000000000011" foes="000010010011" cont="1"/>
        <request index="3"  response="000001000000" foes="100001000000" cont="0"/>
        <request index="4"  response="000011000111" foes="100011000111" cont="0"/>
        <request index="5"  response="111011000011" foes="111011000011" cont="1"/>
        <request index="6"  response="100000100000" foes="110100111010" cont="0"/>
        <request index="7"  response="100000100101" foes="110100110111" cont="1"/>
        <request index="8"  response="000011000000" foes="010011000010" cont="1"/>
        <request index="9"  response="000000000001" foes="000000100001" cont="0"/>
        <request index="10" response="000111000011" foes="000111100011" cont="0"/>
        <request index="11" response="000011011011" foes="000011111011" cont="1"/>
    </junction>
    <junction id="east" type="priority" x="400.00" y="200.00" incLanes="east_out_0 east_out_1" intLanes=":east_0_0" shape="400.00,200.00 400.00,193.60 400.00,200.00">
        <request index="0" response="0" foes="0" cont="0"/>
    </junction>
    <junction id="north" type="priority" x="200.00" y="400.00" incLanes="north_out_0 north_out_1" intLanes=":north_0_0" shape="200.00,400.00 206.40,400.00 200.00,400.00">
        <request index="0" response="0" foes="0" cont="0"/>
    </junction>
    <junction id="south" type="priority" x="200.00" y="0.00" incLanes="south_out_0 south_out_1" intLanes=":south_0_0" shape="200.00,0.00 193.60,0.00 200.00,0.00">
        <request index="0" response="0" foes="0" cont="0"/>
    </junction>
    <junction id="west" type="priority" x="0.00" y="200.00" incLanes="west_out_0 west_out_1" intLanes=":west_0_0" shape="0.00,200.00 0.00,206.40 0.00,200.00">
        <request index="0" response="0" foes="0" cont="0"/>
    </junction>

    <junction id=":center_12_0" type="internal" x="196.53" y="205.14" incLanes=":center_1_0 :center_7_0 south_in_0 south_in_1" intLanes=":center_15_0 :center_4_0 :center_5_0 :center_6_0 :center_7_0 :center_8_0 :center_10_0 :center_11_0"/>
    <junction id=":center_13_0" type="internal" x="197.85" y="207.95" incLanes=":center_2_0 north_in_0" intLanes=":center_0_0 :center_1_0 :center_4_0 :center_7_0"/>
    <junction id=":center_14_0" type="internal" x="198.49" y="197.93" incLanes=":center_5_0 west_in_0" intLanes=":center_0_0 :center_1_0 :center_6_0 :center_7_0 :center_9_0 :center_10_0"/>
    <junction id=":center_15_0" type="internal" x="203.47" y="194.86" incLanes=":center_7_0 north_in_0 north_in_1" intLanes=":center_0_0 :center_1_0 :center_2_0 :center_4_0 :center_5_0 :center_10_0 :center_11_0"/>
    <junction id=":center_16_0" type="internal" x="202.15" y="192.05" incLanes=":center_8_0 south_in_0" intLanes=":center_1_0 :center_6_0 :center_7_0 :center_10_0"/>
    <junction id=":center_17_0" type="internal" x="201.51" y="202.07" incLanes=":center_11_0 east_in_0" intLanes=":center_0_0 :center_1_0 :center_3_0 :center_4_0 :center_6_0 :center_7_0"/>

    <connection from="east_in" to="north_out" fromLane="0" toLane="0" via=":center_3_0" tl="center" linkIndex="3" dir="r" state="o"/>
    <connection from="east_in" to="west_out" fromLane="0" toLane="0" via=":center_4_0" tl="center" linkIndex="4" dir="s" state="o"/>
    <connection from="east_in" to="south_out" fromLane="1" toLane="0" via=":center_5_0" tl="center" linkIndex="5" dir="l" state="o"/>
    <connection from="east_out" to="east_in" fromLane="1" toLane="1" via=":east_0_0" dir="t" state="M"/>
    <connection from="north_in" to="south_out" fromLane="0" toLane="0" via=":center_0_0" tl="center" linkIndex="0" dir="s" state="O"/>
    <connection from="north_in" to="east_out" fromLane="0" toLane="0" via=":center_1_0" tl="center" linkIndex="1" dir="l" state="o"/>
    <connection from="north_in" to="west_out" fromLane="1" toLane="0" via=":center_2_0" tl="center" linkIndex="2" dir="r" state="o"/>
    <connection from="north_out" to="north_in" fromLane="1" toLane="1" via=":north_0_0" dir="t" state="M"/>
    <connection from="south_in" to="north_out" fromLane="0" toLane="0" via=":center_6_0" tl="center" linkIndex="6" dir="s" state="O"/>
    <connection from="south_in" to="west_out" fromLane="0" toLane="0" via=":center_7_0" tl="center" linkIndex="7" dir="l" state="o"/>
    <connection from="south_in" to="east_out" fromLane="1" toLane="0" via=":center_8_0" tl="center" linkIndex="8" dir="r" state="o"/>
    <connection from="south_out" to="south_in" fromLane="1" toLane="1" via=":south_0_0" dir="t" state="M"/>
    <connection from="west_in" to="south_out" fromLane="0" toLane="0" via=":center_9_0" tl="center" linkIndex="9" dir="r" state="o"/>
    <connection from="west_in" to="east_out" fromLane="0" toLane="0" via=":center_10_0" tl="center" linkIndex="10" dir="s" state="o"/>
    <connection from="west_in" to="north_out" fromLane="1" toLane="0" via=":center_11_0" tl="center" linkIndex="11" dir="l" state="o"/>
    <connection from="west_out" to="west_in" fromLane="1" toLane="1" via=":west_0_0" dir="t" state="M"/>

    <connection from=":center_0" to="south_out" fromLane="0" toLane="0" dir="s" state="M"/>
    <connection from=":center_1" to="east_out" fromLane="0" toLane="0" via=":center_12_0" dir="l" state="m"/>
    <connection from=":center_12" to="east_out" fromLane="0" toLane="0" dir="l" state="M"/>
    <connection from=":center_2" to="west_out" fromLane="0" toLane="0" via=":center_13_0" dir="r" state="m"/>
    <connection from=":center_13" to="west_out" fromLane="0" toLane="0" dir="r" state="M"/>
    <connection from=":center_3" to="north_out" fromLane="0" toLane="0" dir="r" state="M"/>
    <connection from=":center_4" to="west_out" fromLane="0" toLane="0" dir="s" state="M"/>
    <connection from=":center_5" to="south_out" fromLane="0" toLane="0" via=":center_14_0" dir="l" state="m"/>
    <connection from=":center_14" to="south_out" fromLane="0" toLane="0" dir="l" state="M"/>
    <connection from=":center_6" to="north_out" fromLane="0" toLane="0" dir="s" state="M"/>
    <connection from=":center_7" to="west_out" fromLane="0" toLane="0" via=":center_15_0" dir="l" state="m"/>
    <connection from=":center_15" to="west_out" fromLane="0" toLane="0" dir="l" state="M"/>
    <connection from=":center_8" to="east_out" fromLane="0" toLane="0" via=":center_16_0" dir="r" state="m"/>
    <connection from=":center_16" to="east_out" fromLane="0" toLane="0" dir="r" state="M"/>
    <connection from=":center_9" to="south_out" fromLane="0" toLane="0" dir="r" state="M"/>
    <connection from=":center_10" to="east_out" fromLane="0" toLane="0" dir="s" state="M"/>
    <connection from=":center_11" to="north_out" fromLane="0" toLane="0" via=":center_17_0" dir="l" state="m"/>
    <connection from=":center_17" to="north_out" fromLane="0" toLane="0" dir="l" state="M"/>
    <connection from=":east_0" to="east_in" fromLane="0" toLane="1" dir="t" state="M"/>
    <connection from=":north_0" to="north_in" fromLane="0" toLane="1" dir="t" state="M"/>
    <connection from=":south_0" to="south_in" fromLane="0" toLane="1" dir="t" state="M"/>
    <connection from=":west_0" to="west_in" fromLane="0" toLane="1" dir="t" state="M"/>

</net>
